Version 4.1
SHEET 1 2256 680
WIRE 224 -192 144 -192
WIRE 464 -192 288 -192
WIRE 784 -192 464 -192
WIRE 464 -176 464 -192
WIRE 1152 -176 1072 -176
WIRE 1392 -176 1216 -176
WIRE 1712 -176 1392 -176
WIRE 1392 -160 1392 -176
WIRE 16 -96 -128 -96
WIRE 144 -96 144 -192
WIRE 144 -96 96 -96
WIRE 224 -96 144 -96
WIRE 464 -96 288 -96
WIRE 544 -96 464 -96
WIRE 784 -80 784 -192
WIRE 784 -80 608 -80
WIRE 944 -80 784 -80
WIRE 1072 -80 1072 -176
WIRE 1072 -80 1024 -80
WIRE 1152 -80 1072 -80
WIRE 1392 -80 1216 -80
WIRE 1472 -80 1392 -80
WIRE 144 -64 144 -96
WIRE 544 -64 480 -64
WIRE 1712 -64 1712 -176
WIRE 1712 -64 1536 -64
WIRE 1776 -64 1712 -64
WIRE -128 -48 -128 -96
WIRE 1072 -48 1072 -80
WIRE 1472 -48 1408 -48
WIRE -496 -16 -496 -80
WIRE -496 96 -496 64
WIRE -496 96 -640 96
WIRE 480 112 480 -64
WIRE -640 128 -640 96
WIRE -496 128 -496 96
WIRE -128 128 -128 32
WIRE 144 128 144 16
WIRE 1408 128 1408 -48
WIRE 1072 144 1072 32
WIRE -496 256 -496 208
FLAG 144 128 0
FLAG 576 -48 Vee
FLAG 576 -112 Vcc
FLAG -128 128 0
FLAG 480 112 0
FLAG -496 256 Vee
FLAG -496 -80 Vcc
FLAG -640 128 0
FLAG 1072 144 0
FLAG 1504 -32 Vee
FLAG 1504 -96 Vcc
FLAG 1408 128 0
DATAFLAG 1744 -64 ""
SYMBOL res 0 -80 R270
WINDOW 0 32 56 VTop 2
WINDOW 3 0 56 VBottom 2
SYMATTR InstName R1
SYMATTR Value 11314
SYMBOL res 128 -80 R0
SYMATTR InstName R2
SYMATTR Value 856
SYMBOL cap 288 -208 R90
WINDOW 0 0 32 VBottom 2
WINDOW 3 32 32 VTop 2
SYMATTR InstName C1
SYMATTR Value 330p
SYMBOL cap 288 -112 R90
WINDOW 0 0 32 VBottom 2
WINDOW 3 32 32 VTop 2
SYMATTR InstName C2
SYMATTR Value 330p
SYMBOL res 448 -192 R0
SYMATTR InstName R3
SYMATTR Value 150k
SYMBOL OpAmps\\opamp2 576 -144 R0
SYMATTR InstName U1
SYMATTR Value TL082
SYMBOL voltage -128 -64 R0
WINDOW 123 24 124 Left 2
WINDOW 39 0 0 Left 0
SYMATTR InstName V1
SYMATTR Value ""
SYMATTR Value2 AC 1
SYMBOL voltage -496 112 R0
SYMATTR InstName V2
SYMATTR Value 15
SYMBOL voltage -496 -32 R0
SYMATTR InstName V3
SYMATTR Value 15
SYMBOL res 928 -64 R270
WINDOW 0 32 56 VTop 2
WINDOW 3 0 56 VBottom 2
SYMATTR InstName R4
SYMATTR Value 11k
SYMBOL res 1056 -64 R0
SYMATTR InstName R5
SYMATTR Value 700
SYMBOL cap 1216 -192 R90
WINDOW 0 0 32 VBottom 2
WINDOW 3 32 32 VTop 2
SYMATTR InstName C3
SYMATTR Value 330p
SYMBOL cap 1216 -96 R90
WINDOW 0 0 32 VBottom 2
WINDOW 3 32 32 VTop 2
SYMATTR InstName C4
SYMATTR Value 330p
SYMBOL res 1376 -176 R0
SYMATTR InstName R6
SYMATTR Value 130k
SYMBOL OpAmps\\opamp2 1504 -128 R0
SYMATTR InstName U2
SYMATTR Value TL082
TEXT -656 352 Left 2 !.ac dec 100 100 100k
TEXT -200 408 Left 2 !.include "C:\\Users\\pojeu\\Desktop\\École\\A25\\ELE2003\\ELE2003_Table15\\LesLTspice\\TL082.lib\\TL082.301"
