Version 4.1
SHEET 1 1676 680
WIRE 592 -304 544 -304
WIRE 784 -304 656 -304
WIRE 1200 -256 1072 -256
WIRE 448 -224 432 -224
WIRE 544 -224 544 -304
WIRE 544 -224 528 -224
WIRE 560 -224 544 -224
WIRE 656 -224 640 -224
WIRE 704 -224 656 -224
WIRE 784 -208 784 -304
WIRE 784 -208 768 -208
WIRE 816 -208 784 -208
WIRE 1072 -208 1072 -256
WIRE 1104 -208 1072 -208
WIRE 432 -192 432 -224
WIRE 704 -192 688 -192
WIRE 1200 -192 1200 -256
WIRE 1200 -192 1168 -192
WIRE 1232 -192 1200 -192
WIRE 656 -176 656 -224
WIRE 1104 -176 1072 -176
WIRE 1072 -144 1072 -176
WIRE 688 -128 688 -192
WIRE 784 -128 784 -208
WIRE 784 -128 688 -128
WIRE 656 -96 656 -112
WIRE 784 -16 592 -16
WIRE 32 80 32 48
WIRE 512 80 512 -16
WIRE 512 80 464 80
WIRE 528 80 512 80
WIRE 608 80 592 80
WIRE 688 80 608 80
WIRE 784 96 784 -16
WIRE 784 96 752 96
WIRE 816 96 784 96
WIRE 608 112 608 80
WIRE 688 112 656 112
WIRE 656 160 656 112
WIRE 784 160 784 96
WIRE 784 160 656 160
WIRE 32 192 32 160
WIRE 32 192 -48 192
WIRE -48 208 -48 192
WIRE 32 208 32 192
WIRE 32 320 32 288
FLAG -48 208 0
FLAG 32 48 Vcc
FLAG 32 320 Vee
FLAG 736 -176 Vcc
FLAG 736 -240 Vee
FLAG 656 -96 0
FLAG 432 -224 Vin
FLAG 432 -112 0
FLAG 608 192 0
FLAG 720 128 Vcc
FLAG 720 64 Vee
FLAG 816 -208 Ve1
FLAG 816 96 Vout
FLAG 1232 -192 Ve2
FLAG 1136 -224 Vcc
FLAG 1136 -160 Vee
FLAG 1072 -64 0
FLAG 992 -176 Ve1
FLAG 400 160 0
SYMBOL voltage 32 64 R0
WINDOW 123 0 0 Left 0
WINDOW 39 0 0 Left 0
SYMATTR InstName V1
SYMATTR Value 15
SYMBOL voltage 32 192 R0
WINDOW 123 0 0 Left 0
WINDOW 39 0 0 Left 0
SYMATTR InstName V2
SYMATTR Value 15
SYMBOL OpAmps\\opamp2 736 -144 M180
SYMATTR InstName U1
SYMATTR Value TL082
SYMBOL cap 640 -176 R0
SYMATTR InstName C1
SYMATTR Value 4.7n
SYMBOL res 656 -240 R90
WINDOW 0 0 56 VBottom 2
WINDOW 3 32 56 VTop 2
SYMATTR InstName R1
SYMATTR Value 115k
SYMBOL res 544 -240 R90
WINDOW 0 0 56 VBottom 2
WINDOW 3 32 56 VTop 2
SYMATTR InstName R2
SYMATTR Value 115k
SYMBOL cap 656 -320 R90
WINDOW 0 0 32 VBottom 2
WINDOW 3 32 32 VTop 2
SYMATTR InstName C2
SYMATTR Value 220n
SYMBOL voltage 432 -208 R0
WINDOW 123 24 124 Left 2
WINDOW 39 0 0 Left 0
SYMATTR InstName V3
SYMATTR Value ""
SYMATTR Value2 AC 1
SYMBOL cap 464 64 R90
WINDOW 0 0 32 VBottom 2
WINDOW 3 32 32 VTop 2
SYMATTR InstName C3
SYMATTR Value 220n
SYMBOL cap 592 64 R90
WINDOW 0 0 32 VBottom 2
WINDOW 3 32 32 VTop 2
SYMATTR InstName C4
SYMATTR Value 220n
SYMBOL res 608 -32 R90
WINDOW 0 0 56 VBottom 2
WINDOW 3 32 56 VTop 2
SYMATTR InstName R3
SYMATTR Value 39.9Meg
SYMBOL res 624 208 R180
WINDOW 0 36 76 Left 2
WINDOW 3 36 40 Left 2
SYMATTR InstName R4
SYMATTR Value 1.16Meg
SYMBOL OpAmps\\opamp2 720 160 M180
SYMATTR InstName U2
SYMATTR Value TL082
SYMBOL OpAmps\\opamp2 1136 -256 R0
SYMATTR InstName U3
SYMATTR Value TL082
SYMBOL res 1088 -192 R90
WINDOW 0 0 56 VBottom 2
WINDOW 3 32 56 VTop 2
SYMATTR InstName R5
SYMATTR Value 103k
SYMBOL res 1088 -48 R180
WINDOW 0 36 76 Left 2
WINDOW 3 36 40 Left 2
SYMATTR InstName R6
SYMATTR Value 1k
SYMBOL voltage 400 64 R0
WINDOW 123 24 124 Left 2
WINDOW 39 0 0 Left 0
SYMATTR InstName V4
SYMATTR Value ""
SYMATTR Value2 AC 1
TEXT 64 536 Left 2 !.include "C:\\Users\\jimtr\\OneDrive - polymtl\\Projet\\ELE2003_Table15\\LesLTspice\\TL082.lib\\TL082.301"
TEXT -64 560 Left 2 !.ac dec 100 10 100k
