Version 4.1
SHEET 1 1436 680
WIRE 48 64 48 0
WIRE 192 80 128 80
WIRE 336 80 272 80
WIRE 480 80 416 80
WIRE 128 144 128 80
WIRE 48 160 48 144
WIRE 48 160 -48 160
WIRE 272 160 272 80
WIRE 288 160 272 160
WIRE -48 176 -48 160
WIRE 48 176 48 160
WIRE 480 176 480 80
WIRE 480 176 352 176
WIRE 576 176 480 176
WIRE 288 192 208 192
WIRE 208 224 208 192
WIRE 48 304 48 256
WIRE 208 416 208 304
FLAG 128 144 0
FLAG 208 192 V_in
FLAG 576 176 V_out
FLAG -48 176 0
FLAG 48 0 V_cc
FLAG 48 304 Vee
FLAG 320 144 V_cc
FLAG 320 208 V_ee
FLAG 208 416 0
DATAFLAG 48 48 ""
DATAFLAG 48 272 ""
SYMBOL res 288 64 R90
WINDOW 0 0 56 VBottom 2
WINDOW 3 32 56 VTop 2
SYMATTR InstName R1
SYMATTR Value 10k
SYMBOL res 432 64 R90
WINDOW 0 0 56 VBottom 2
WINDOW 3 32 56 VTop 2
SYMATTR InstName R2
SYMATTR Value 150k
SYMBOL voltage 48 160 R0
WINDOW 123 0 0 Left 0
WINDOW 39 0 0 Left 0
SYMATTR InstName V2
SYMATTR Value 15
SYMBOL voltage 48 48 R0
WINDOW 123 0 0 Left 0
WINDOW 39 0 0 Left 0
SYMATTR InstName V1
SYMATTR Value 15
SYMBOL OpAmps\\opamp2 320 112 R0
SYMATTR InstName U1
SYMATTR Value TL082
SYMBOL voltage 208 208 R0
WINDOW 123 0 0 Left 0
WINDOW 39 0 0 Left 0
SYMATTR InstName V3
SYMATTR Value SINE(0 500m 5k)
TEXT 136 464 Left 2 !.include "C:\\Users\\jimtr\\OneDrive - polymtl\\Projet\\TP_projet_équipe_15\\TP1\\LTspice\\TL082.lib\\TL082.301"
TEXT 144 504 Left 2 !.tran 500u
